-------------------------------------------------------
          Amber 9  SANDER                 Scripps/UCSF 2004
          -------------------------------------------------------

  [-O]verwriting output

File Assignments:

 Here is the input file:

Stage 1 heating of TC5b 0 to 50K
 &cntrl
  imin=0, irest=0, ntx=1,
  nstlim=10000, dt=0.0005,
  ntc=2, ntf=2,
  ntt=1, tautp=1.0,
  tempi=0.0, temp0=50.0,
  ntpr=50, ntwx=50,
  ntb=0, igb=1,
  cut=999.,rgbmax=999.
 /

--------------------------------------------------------------------------------
   1.  RESOURCE   USE:
--------------------------------------------------------------------------------

 NATOM  =     304 NTYPES =      12 NBONH =     150 MBONA  =     160
 NTHETH =     346 MTHETA =     219 NPHIH =     653 MPHIA  =     403
 NHPARM =       0 NPARM  =       0 NNB   =    1701 NRES   =      20
 NBONA  =     160 NTHETA =     219 NPHIA =     403 NUMBND =      32
 NUMANG =      70 NPTRA  =      34 NATYP =      21 NPHB   =       0
 IFBOX  =       0 NMXRS  =      24 IFCAP =       0 NEXTRA =       0
 NCOPY  =       0

--------------------------------------------------------------------------------
   2.  CONTROL  DATA  FOR  THE  RUN
--------------------------------------------------------------------------------

NASN

General flags:
     imin    =       0, nmropt  =       0

Nature and format of input:
     ntx     =       1, irest   =       0, ntrx    =       1

Nature and format of output:
     ntxo    =       1, ntpr    =      50, ntrx    =       1, ntwr    =     500
     iwrap   =       0, ntwx    =      50, ntwv    =       0, ntwe    =       0
     ioutfm  =       0, ntwprt  =       0, idecomp =       0, rbornstat=      0

Potential function:
     ntf     =       2, ntb     =       0, igb     =       1, nsnb    =      25
     ipol    =       0, gbsa    =       0, iesp    =       0
     dielc   =   1.00000, cut     = 999.00000, intdiel =   1.00000
     saltcon =   0.00000, offset  =   0.09000, gbalpha=    1.00000
     gbbeta  =   0.00000, gbgamma =   0.00000, surften =   0.00500
     rdt     =   0.00000, rgbmax  = 999.00000
     scnb    =   2.00000, scee    =   1.20000

Frozen or restrained atoms:
     ibelly  =       0, ntr     =       0

Molecular dynamics:
     nstlim  =     10000, nscm    =      1000, nrespa  =         1
     t       =   0.00000, dt      =   0.00050, vlimit  =  20.00000

Berendsen (weak-coupling) temperature regulation:
     temp0   =  50.00000, tempi   =   0.00000, tautp   =   1.00000

SHAKE:
     ntc     =       2, jfastw  =       0
     tol     =   0.00001

--------------------------------------------------------------------------------
   3.  ATOMIC COORDINATES AND VELOCITIES
--------------------------------------------------------------------------------

NASN
 begin time read from input coords =     0.000 ps

 Number of triangulated 3-point waters found:        0

--------------------------------------------------------------------------------
   4.  RESULTS
 NSTEP =        0   TIME(PS) =       0.000  TEMP(K) =     0.00  PRESS =     0.0
 Etot   =      -699.8639  EKtot   =         0.0000  EPtot      =      -699.8639
 BOND   =        12.0162  ANGLE   =        35.0330  DIHED      =        94.7732
 1-4 NB =        48.6629  1-4 EEL =       862.3478  VDWAALS    =       -57.3368
 EELEC  =     -1261.7824  EGB     =      -433.5778  RESTRAINT  =         0.0000
 ------------------------------------------------------------------------------

      A V E R A G E S   O V E R   10000 S T E P S

 NSTEP =    10000   TIME(PS) =       5.000  TEMP(K) =    32.25  PRESS =     0.0
 Etot   =      -659.1600  EKtot   =        24.2270  EPtot      =      -683.3870
 BOND   =        11.5557  ANGLE   =        35.7221  DIHED      =       108.8808
 1-4 NB =        48.9091  1-4 EEL =       863.3276  VDWAALS    =       -59.1723
 EELEC  =     -1246.3847  EGB     =      -446.2253  RESTRAINT  =         0.0000
 ------------------------------------------------------------------------------

      R M S  F L U C T U A T I O N S

 NSTEP =    10000   TIME(PS) =       5.000  TEMP(K) =    12.15  PRESS =     0.0
 Etot   =        18.0598  EKtot   =         9.1281  EPtot      =         9.6216
 BOND   =         0.9158  ANGLE   =         2.3213  DIHED      =         6.9316
 1-4 NB =         0.9405  1-4 EEL =         4.6708  VDWAALS    =         2.5095
 EELEC  =        13.1570  EGB     =         9.4791  RESTRAINT  =         0.0000
 ------------------------------------------------------------------------------
